Version 4
SHEET 1 880 680
WIRE 768 -192 320 -192
WIRE 512 -144 224 -144
WIRE 624 -144 592 -144
WIRE 608 -80 448 -80
WIRE 688 -80 608 -80
WIRE 448 -48 448 -80
WIRE 608 -48 608 -80
WIRE 768 32 768 -192
WIRE 688 64 688 -80
WIRE 320 80 320 -192
WIRE 224 96 224 -144
WIRE 288 96 224 96
WIRE 448 112 448 16
WIRE 448 112 352 112
WIRE 512 112 512 -144
WIRE 608 112 608 16
WIRE 608 112 512 112
WIRE 80 128 -32 128
WIRE 288 128 160 128
WIRE 768 128 768 112
WIRE -32 144 -32 128
WIRE 768 144 768 128
WIRE 448 192 448 112
WIRE 608 192 608 112
WIRE 608 256 448 256
WIRE 688 256 688 144
WIRE 688 256 608 256
WIRE -32 272 -32 224
WIRE 320 432 320 144
WIRE 768 432 768 224
WIRE 768 432 320 432
FLAG -32 272 0
FLAG 768 128 0
FLAG 624 -144 0
SYMBOL voltage 768 16 R0
WINDOW 123 0 0 Left 2
WINDOW 39 0 0 Left 2
SYMATTR InstName V1
SYMATTR Value 15
SYMBOL voltage 768 128 R0
WINDOW 123 0 0 Left 2
WINDOW 39 0 0 Left 2
SYMATTR InstName V2
SYMATTR Value 15
SYMBOL Opamps\\LT1001A 320 48 R0
SYMATTR InstName U1
SYMBOL voltage -32 128 R0
WINDOW 0 -72 56 Left 2
WINDOW 3 -301 -26 Invisible 2
WINDOW 123 -79 100 Left 2
WINDOW 39 0 0 Left 2
SYMATTR InstName V3
SYMATTR Value 1
SYMATTR Value2 AC 1
SYMBOL diode 464 16 R180
WINDOW 0 24 64 Left 2
WINDOW 3 24 0 Left 2
SYMATTR InstName D1
SYMATTR Value 1N914
SYMBOL res 176 112 R90
WINDOW 0 0 56 VBottom 2
WINDOW 3 32 56 VTop 2
SYMATTR InstName R1
SYMATTR Value 10k
SYMBOL diode 624 16 R180
WINDOW 0 24 64 Left 2
WINDOW 3 24 0 Left 2
SYMATTR InstName D2
SYMATTR Value 1N914
SYMBOL diode 464 256 R180
WINDOW 0 24 64 Left 2
WINDOW 3 24 0 Left 2
SYMATTR InstName D3
SYMATTR Value 1N914
SYMBOL diode 624 256 R180
WINDOW 0 24 64 Left 2
WINDOW 3 24 0 Left 2
SYMATTR InstName D4
SYMATTR Value 1N914
SYMBOL res 496 -128 R270
WINDOW 0 32 56 VTop 2
WINDOW 3 0 56 VBottom 2
SYMATTR InstName R2
SYMATTR Value 1k
SYMBOL res 672 48 R0
SYMATTR InstName R3
SYMATTR Value 1k
TEXT -200 -48 Left 2 !.dc V3 -10 10 1m
