Version 4
SHEET 1 1612 680
WIRE 512 -256 224 -256
WIRE 1072 -256 640 -256
WIRE 512 -192 512 -256
WIRE 640 -192 640 -256
WIRE 448 -144 432 -144
WIRE 752 -144 704 -144
WIRE 432 -112 432 -144
WIRE 592 -96 512 -96
WIRE 640 -96 592 -96
WIRE 752 -48 752 -144
WIRE 752 -48 544 -48
WIRE 944 -16 640 -16
WIRE 1552 -16 944 -16
WIRE 1552 32 1552 -16
WIRE 112 48 -32 48
WIRE 224 48 224 -256
WIRE 224 48 192 48
WIRE -32 64 -32 48
WIRE 640 64 640 -16
WIRE 640 64 320 64
WIRE 320 80 320 64
WIRE 944 80 944 -16
WIRE 224 96 224 48
WIRE 288 96 224 96
WIRE 1072 96 1072 -256
WIRE 1072 96 976 96
WIRE 1104 96 1072 96
WIRE 1248 96 1184 96
WIRE 416 112 352 112
WIRE 544 112 544 -48
WIRE 544 112 496 112
WIRE 592 112 592 -96
WIRE 736 112 592 112
WIRE 912 112 816 112
WIRE 1248 112 1248 96
WIRE 288 128 240 128
WIRE 1024 128 976 128
WIRE 1552 128 1552 112
WIRE 1024 144 1024 128
WIRE 1552 144 1552 128
WIRE 240 160 240 128
WIRE -32 192 -32 144
WIRE 544 224 544 192
WIRE 1248 224 1248 192
WIRE 1024 240 1024 224
WIRE 240 256 240 240
WIRE 320 272 320 144
WIRE 944 272 944 144
WIRE 944 272 320 272
WIRE 1552 272 1552 224
WIRE 1552 272 944 272
FLAG -32 192 0
FLAG 1552 128 0
FLAG 544 224 0
FLAG 1024 240 0
FLAG 432 -112 0
FLAG 1248 224 0
FLAG 240 256 0
SYMBOL res 208 32 R90
WINDOW 0 0 56 VBottom 2
WINDOW 3 32 56 VTop 2
SYMATTR InstName R1
SYMATTR Value 330
SYMBOL voltage 1552 16 R0
WINDOW 123 0 0 Left 2
WINDOW 39 0 0 Left 2
SYMATTR InstName V1
SYMATTR Value 15
SYMBOL voltage 1552 128 R0
WINDOW 123 0 0 Left 2
WINDOW 39 0 0 Left 2
SYMATTR InstName V2
SYMATTR Value 15
SYMBOL Opamps\\LT1001A 320 48 R0
SYMATTR InstName U1
SYMBOL voltage -32 48 R0
WINDOW 0 -72 56 Left 2
WINDOW 3 -154 102 Left 2
WINDOW 123 -154 130 Left 2
WINDOW 39 0 0 Left 2
SYMATTR InstName V3
SYMATTR Value 1
SYMATTR Value2 AC 1
SYMBOL res 512 96 R90
WINDOW 0 0 56 VBottom 2
WINDOW 3 32 56 VTop 2
SYMATTR InstName R2
SYMATTR Value 330
SYMBOL res 560 208 R180
WINDOW 0 36 76 Left 2
WINDOW 3 36 40 Left 2
SYMATTR InstName R3
SYMATTR Value 220
SYMBOL npn 448 -192 R0
SYMATTR InstName Q1
SYMATTR Value BC847B
SYMBOL npn 704 -192 M0
SYMATTR InstName Q2
SYMATTR Value BC847B
SYMBOL res 832 96 R90
WINDOW 0 0 56 VBottom 2
WINDOW 3 32 56 VTop 2
SYMATTR InstName R4
SYMATTR Value 220
SYMBOL Opamps\\LT1001A 944 48 M0
SYMATTR InstName U2
SYMBOL res 1040 240 R180
WINDOW 0 36 76 Left 2
WINDOW 3 36 40 Left 2
SYMATTR InstName R5
SYMATTR Value 330
SYMBOL voltage 1248 96 R0
WINDOW 123 0 0 Left 2
WINDOW 39 0 0 Left 2
SYMATTR InstName V4
SYMATTR Value 1
SYMBOL res 1200 80 R90
WINDOW 0 0 56 VBottom 2
WINDOW 3 32 56 VTop 2
SYMATTR InstName R6
SYMATTR Value 330
SYMBOL res 256 256 R180
WINDOW 0 36 76 Left 2
WINDOW 3 36 40 Left 2
SYMATTR InstName R7
SYMATTR Value 330
TEXT -96 -136 Left 2 !;tran 0 100m 0 1u
TEXT -96 -176 Left 2 !;ac dec 1001 10 10meg
TEXT -168 264 Left 2 !.dc V1 -10 10 1m
