Version 4
SHEET 1 880 680
WIRE 272 -16 224 -16
WIRE 400 -16 352 -16
WIRE 768 -16 640 -16
WIRE 768 32 768 -16
WIRE 112 48 -32 48
WIRE 224 48 224 -16
WIRE 224 48 192 48
WIRE -32 64 -32 48
WIRE 640 64 640 -16
WIRE 640 64 320 64
WIRE 320 80 320 64
WIRE 224 96 224 48
WIRE 288 96 224 96
WIRE 400 112 400 -16
WIRE 400 112 352 112
WIRE 288 128 256 128
WIRE 768 128 768 112
WIRE 768 144 768 128
WIRE -32 192 -32 144
WIRE 320 272 320 144
WIRE 768 272 768 224
WIRE 768 272 320 272
WIRE 256 288 256 128
WIRE 256 400 256 368
FLAG -32 192 0
FLAG 768 128 0
FLAG 256 400 0
SYMBOL res 208 32 R90
WINDOW 0 0 56 VBottom 2
WINDOW 3 32 56 VTop 2
SYMATTR InstName R1
SYMATTR Value 1k
SYMBOL res 368 -32 R90
WINDOW 0 0 56 VBottom 2
WINDOW 3 32 56 VTop 2
SYMATTR InstName R2
SYMATTR Value 9k
SYMBOL voltage 768 16 R0
WINDOW 123 0 0 Left 2
WINDOW 39 0 0 Left 2
SYMATTR InstName V1
SYMATTR Value 15
SYMBOL voltage 768 128 R0
WINDOW 123 0 0 Left 2
WINDOW 39 0 0 Left 2
SYMATTR InstName V2
SYMATTR Value 15
SYMBOL Opamps\\LT1001A 320 48 R0
SYMATTR InstName U1
SYMBOL voltage -32 48 R0
WINDOW 0 -72 56 Left 2
WINDOW 3 -154 102 Left 2
WINDOW 123 -154 130 Left 2
WINDOW 39 0 0 Left 2
SYMATTR InstName V3
SYMATTR Value SINE(0 100m 4k)
SYMATTR Value2 AC 1
SYMBOL voltage 256 272 R0
WINDOW 123 0 0 Left 2
WINDOW 39 0 0 Left 2
SYMATTR InstName V4
SYMATTR Value 500m
TEXT -96 -136 Left 2 !.tran 0 10m 0 1u
TEXT -96 -96 Left 2 !;tf V(n002) V3
TEXT -96 -176 Left 2 !;ac dec 1001 10 10meg
