Version 4
SHEET 1 1048 680
WIRE 224 48 192 48
WIRE 352 48 288 48
WIRE 192 128 192 48
WIRE 224 128 192 128
WIRE 352 128 352 48
WIRE 352 128 304 128
WIRE 96 192 48 192
WIRE 192 192 192 128
WIRE 192 192 176 192
WIRE 48 208 48 192
WIRE 192 240 192 192
WIRE 256 240 192 240
WIRE 352 256 352 128
WIRE 352 256 320 256
WIRE 256 272 240 272
WIRE 48 336 48 288
FLAG 48 336 0
FLAG 240 272 0
FLAG 224 -16 0
FLAG 320 -16 0
FLAG 224 -96 VCC
IOPIN 224 -96 Out
FLAG 320 -96 VEE
IOPIN 320 -96 Out
FLAG 288 224 VCC
IOPIN 288 224 In
FLAG 288 288 VEE
IOPIN 288 288 In
SYMBOL res 192 176 R90
WINDOW 0 0 56 VBottom 2
WINDOW 3 32 56 VTop 2
SYMATTR InstName R1
SYMATTR Value 100
SYMBOL res 320 112 R90
WINDOW 0 0 56 VBottom 2
WINDOW 3 24 86 VTop 2
SYMATTR InstName R2
SYMATTR Value 100k
SYMBOL voltage 224 -112 R0
WINDOW 123 0 0 Left 2
WINDOW 39 0 0 Left 2
WINDOW 3 -7 59 Left 2
SYMATTR Value 15
SYMATTR InstName V1
SYMBOL voltage 320 -112 R0
WINDOW 123 0 0 Left 2
WINDOW 39 0 0 Left 2
WINDOW 3 -6 58 Left 2
SYMATTR Value -15
SYMATTR InstName V2
SYMBOL voltage 48 192 R0
WINDOW 0 36 57 Left 2
WINDOW 3 36 73 Left 2
WINDOW 123 36 101 Left 2
WINDOW 39 0 0 Left 2
SYMATTR InstName V0
SYMATTR Value SINE(0 100u 10k)
SYMATTR Value2 AC 10u
SYMBOL Opamps\\AD811 288 192 R0
SYMATTR InstName U2
SYMBOL cap 288 32 R90
WINDOW 0 0 32 VBottom 2
WINDOW 3 32 32 VTop 2
SYMATTR InstName C1
SYMATTR Value 10n
TEXT -144 24 Left 2 !;tran 0 1m 0 100n
TEXT -144 48 Left 2 !;tf V(n002) V3
TEXT -144 0 Left 2 !.ac dec 1001 10 1000meg
TEXT -144 -40 Left 2 !;dc V0 -5 5 0.001
