Version 4
SHEET 1 880 680
WIRE 48 -192 -112 -192
WIRE -112 -80 -112 -192
WIRE -48 -80 -112 -80
WIRE 48 -64 48 -192
WIRE 48 -64 16 -64
WIRE -48 -48 -128 -48
WIRE -128 -32 -128 -48
WIRE -128 96 -128 48
FLAG 464 -64 0
FLAG 576 -64 0
FLAG 464 -144 VCC
IOPIN 464 -144 Out
FLAG 576 -144 VEE
IOPIN 576 -144 Out
FLAG -16 -96 VCC
IOPIN -16 -96 In
FLAG -16 -32 VEE
IOPIN -16 -32 In
FLAG -128 96 0
FLAG 128 -64 0
SYMBOL voltage 464 -160 R0
WINDOW 123 0 0 Left 2
WINDOW 39 0 0 Left 2
WINDOW 3 -7 59 Left 2
SYMATTR Value 15
SYMATTR InstName V4
SYMBOL voltage 576 -160 R0
WINDOW 123 0 0 Left 2
WINDOW 39 0 0 Left 2
WINDOW 3 -6 58 Left 2
SYMATTR Value -15
SYMATTR InstName V5
SYMBOL AutoGenerated\\LM358 -16 -128 R0
SYMATTR InstName U2
SYMBOL voltage -128 -48 R0
WINDOW 0 36 57 Left 2
WINDOW 3 36 73 Left 2
WINDOW 123 36 89 Left 2
WINDOW 39 0 0 Left 2
SYMATTR InstName V2
SYMATTR Value PULSE(0 1 10u 1n 1n 10u 20u 1)
SYMATTR Value2 AC 1
SYMBOL res 144 -80 R90
WINDOW 0 0 56 VBottom 2
WINDOW 3 32 56 VTop 2
SYMATTR InstName R1
SYMATTR Value 10k
TEXT 240 -88 Left 2 !.tran 0 100u 0 1n
TEXT 240 -64 Left 2 !;tf V(n002) V3
TEXT 240 -112 Left 2 !;ac dec 1001 10 10meg
