Version 4
SHEET 1 880 680
WIRE 768 -16 320 -16
WIRE 768 32 768 -16
WIRE 320 80 320 -16
WIRE 288 96 208 96
WIRE 464 112 352 112
WIRE 288 128 16 128
WIRE 768 128 768 112
WIRE 16 144 16 128
WIRE 768 144 768 128
WIRE 16 272 16 224
WIRE 320 272 320 144
WIRE 768 272 768 224
WIRE 768 272 320 272
FLAG 16 272 0
FLAG 768 128 0
FLAG 208 48 0
SYMBOL voltage 768 16 R0
WINDOW 123 0 0 Left 2
WINDOW 39 0 0 Left 2
SYMATTR InstName V1
SYMATTR Value 15
SYMBOL voltage 768 128 R0
WINDOW 123 0 0 Left 2
WINDOW 39 0 0 Left 2
SYMATTR InstName V2
SYMATTR Value 15
SYMBOL voltage 16 128 R0
WINDOW 0 -72 56 Left 2
WINDOW 3 -154 102 Left 2
WINDOW 123 -154 130 Left 2
WINDOW 39 0 0 Left 2
SYMATTR InstName V3
SYMATTR Value SINE(0 10u 20k)
SYMATTR Value2 AC 10u
SYMBOL AutoGenerated\\LM358 320 48 R0
SYMATTR InstName U1
TEXT -96 -136 Left 2 !;tran 0 500u 0 1u
TEXT -96 -96 Left 2 !;tf V(n001) V3
TEXT -96 -176 Left 2 !.ac dec 1001 0.1 10meg
