Version 4
SHEET 1 1448 876
WIRE 1440 -416 1200 -416
WIRE -496 -400 -496 -416
WIRE 1104 -400 -496 -400
WIRE 1136 -400 1104 -400
WIRE 1248 -384 1200 -384
WIRE 224 -304 192 -304
WIRE 432 -304 304 -304
WIRE 1104 -288 1104 -400
WIRE 1248 -288 1248 -384
WIRE 1248 -288 1184 -288
WIRE 192 -240 192 -304
WIRE 240 -240 192 -240
WIRE 368 -240 304 -240
WIRE 64 -176 32 -176
WIRE 192 -176 192 -240
WIRE 192 -176 144 -176
WIRE 192 -128 192 -176
WIRE 256 -128 192 -128
WIRE 368 -112 368 -240
WIRE 368 -112 320 -112
WIRE 432 -112 432 -304
WIRE 432 -112 368 -112
WIRE 544 -112 432 -112
WIRE 256 -96 224 -96
WIRE 224 -64 224 -96
WIRE -176 32 -208 32
WIRE 32 32 32 -176
WIRE 32 32 -96 32
WIRE 304 32 256 32
WIRE 496 32 368 32
WIRE 256 96 256 32
WIRE 288 96 256 96
WIRE 496 96 496 32
WIRE 496 96 368 96
WIRE 544 112 544 -112
WIRE 672 112 624 112
WIRE 832 112 672 112
WIRE 992 112 912 112
WIRE -496 160 -496 -400
WIRE -304 160 -496 160
WIRE -208 160 -208 32
WIRE -208 160 -224 160
WIRE -208 208 -208 160
WIRE -144 208 -208 208
WIRE 32 224 32 32
WIRE 32 224 -80 224
WIRE 64 224 32 224
WIRE 144 224 128 224
WIRE 256 224 256 96
WIRE 256 224 224 224
WIRE -304 240 -496 240
WIRE -208 240 -224 240
WIRE -144 240 -208 240
WIRE -496 256 -496 240
WIRE -208 256 -208 240
WIRE 256 272 256 224
WIRE 320 272 256 272
WIRE 496 288 496 96
WIRE 496 288 384 288
WIRE 544 288 496 288
WIRE 672 288 672 112
WIRE 672 288 624 288
WIRE 816 288 672 288
WIRE 320 304 288 304
WIRE 992 304 992 112
WIRE 992 304 880 304
WIRE 1440 304 1440 -416
WIRE 1440 304 992 304
WIRE 816 320 784 320
WIRE 288 336 288 304
WIRE -208 352 -208 336
WIRE 784 352 784 320
WIRE -496 384 -496 336
WIRE 224 544 192 544
WIRE 432 544 304 544
WIRE 544 544 432 544
WIRE 672 544 672 288
WIRE 672 544 624 544
WIRE 32 672 32 224
WIRE 64 672 32 672
WIRE 192 672 192 544
WIRE 192 672 144 672
WIRE 192 720 192 672
WIRE 256 720 192 720
WIRE 432 736 432 544
WIRE 432 736 320 736
WIRE 256 752 224 752
WIRE 224 784 224 752
FLAG -496 384 0
FLAG 160 -560 0
FLAG 272 -560 0
FLAG 160 -640 VCC
IOPIN 160 -640 Out
FLAG 272 -640 VEE
IOPIN 272 -640 Out
FLAG 288 -144 VCC
IOPIN 288 -144 In
FLAG 288 -80 VEE
IOPIN 288 -80 In
FLAG 224 16 0
FLAG 352 256 VCC
IOPIN 352 256 In
FLAG 352 320 VEE
IOPIN 352 320 In
FLAG 288 416 0
FLAG 288 704 VCC
IOPIN 288 704 In
FLAG 288 768 VEE
IOPIN 288 768 In
FLAG 224 864 0
FLAG 848 272 VCC
IOPIN 848 272 In
FLAG 848 336 VEE
IOPIN 848 336 In
FLAG 784 432 0
FLAG -112 192 VCC
IOPIN -112 192 In
FLAG -112 256 VEE
IOPIN -112 256 In
FLAG -208 352 0
FLAG 1168 -368 VCC
IOPIN 1168 -368 In
FLAG 1168 -432 VEE
IOPIN 1168 -432 In
FLAG 1248 -208 0
SYMBOL res 160 -192 R90
WINDOW 0 0 56 VBottom 2
WINDOW 3 32 56 VTop 2
SYMATTR InstName R1
SYMATTR Value 1k
SYMBOL res 320 -320 R90
WINDOW 0 0 56 VBottom 2
WINDOW 3 24 86 VTop 2
SYMATTR InstName R2
SYMATTR Value 10meg
SYMBOL voltage 160 -656 R0
WINDOW 123 0 0 Left 2
WINDOW 39 0 0 Left 2
WINDOW 3 -7 59 Left 2
SYMATTR Value 15
SYMATTR InstName V1
SYMBOL voltage 272 -656 R0
WINDOW 123 0 0 Left 2
WINDOW 39 0 0 Left 2
WINDOW 3 -6 58 Left 2
SYMATTR Value -15
SYMATTR InstName V2
SYMBOL voltage -496 240 R0
WINDOW 0 36 57 Left 2
WINDOW 3 36 73 Left 2
WINDOW 123 36 89 Left 2
WINDOW 39 0 0 Left 2
SYMATTR InstName V0
SYMATTR Value PULSE(0 2 20m 1u 1u 100m 200m)
SYMATTR Value2 AC 1
SYMBOL cap 304 -256 R90
WINDOW 0 0 32 VBottom 2
WINDOW 3 32 32 VTop 2
SYMATTR InstName C1
SYMATTR Value 10µ
SYMBOL res 240 32 R180
WINDOW 0 36 76 Left 2
WINDOW 3 36 40 Left 2
SYMATTR InstName R3
SYMATTR Value 0
SYMBOL res 384 80 R90
WINDOW 0 0 56 VBottom 2
WINDOW 3 24 86 VTop 2
SYMATTR InstName R5
SYMATTR Value 1k
SYMBOL cap 128 208 R90
WINDOW 0 0 32 VBottom 2
WINDOW 3 32 32 VTop 2
SYMATTR InstName C2
SYMATTR Value 22µ
SYMBOL res 304 432 R180
WINDOW 0 36 76 Left 2
WINDOW 3 36 40 Left 2
SYMATTR InstName R6
SYMATTR Value 0
SYMBOL res 160 656 R90
WINDOW 0 0 56 VBottom 2
WINDOW 3 32 56 VTop 2
SYMATTR InstName R7
SYMATTR Value 1k
SYMBOL res 320 528 R90
WINDOW 0 0 56 VBottom 2
WINDOW 3 24 86 VTop 2
SYMATTR InstName R8
SYMATTR Value 910
SYMBOL res 240 880 R180
WINDOW 0 36 76 Left 2
WINDOW 3 36 40 Left 2
SYMATTR InstName R9
SYMATTR Value 0
SYMBOL res 640 272 R90
WINDOW 0 0 56 VBottom 2
WINDOW 3 32 56 VTop 2
SYMATTR InstName R10
SYMATTR Value 10k
SYMBOL res 928 96 R90
WINDOW 0 0 56 VBottom 2
WINDOW 3 24 86 VTop 2
SYMATTR InstName R11
SYMATTR Value 10k
SYMBOL res 800 448 R180
WINDOW 0 36 76 Left 2
WINDOW 3 36 40 Left 2
SYMATTR InstName R12
SYMATTR Value 0
SYMBOL res -208 144 R90
WINDOW 0 0 56 VBottom 2
WINDOW 3 32 56 VTop 2
SYMATTR InstName R13
SYMATTR Value 1k
SYMBOL res -80 16 R90
WINDOW 0 0 56 VBottom 2
WINDOW 3 24 86 VTop 2
SYMATTR InstName R14
SYMATTR Value 1k
SYMBOL res -192 352 R180
WINDOW 0 36 76 Left 2
WINDOW 3 36 40 Left 2
SYMATTR InstName R15
SYMATTR Value 1k
SYMBOL res 640 96 R90
WINDOW 0 0 56 VBottom 2
WINDOW 3 32 56 VTop 2
SYMATTR InstName R4
SYMATTR Value 10k
SYMBOL res 640 528 R90
WINDOW 0 0 56 VBottom 2
WINDOW 3 32 56 VTop 2
SYMATTR InstName R16
SYMATTR Value 10k
SYMBOL res -208 224 R90
WINDOW 0 0 56 VBottom 2
WINDOW 3 32 56 VTop 2
SYMATTR InstName R17
SYMATTR Value 1k
SYMBOL res 1264 -192 R180
WINDOW 0 36 76 Left 2
WINDOW 3 36 40 Left 2
SYMATTR InstName R18
SYMATTR Value 1k
SYMBOL res 1088 -272 R270
WINDOW 0 32 56 VTop 2
WINDOW 3 0 56 VBottom 2
SYMATTR InstName R19
SYMATTR Value 1k
SYMBOL Opamps\\LTC2054 1168 -400 R180
SYMATTR InstName U6
SYMBOL res 240 208 R90
WINDOW 0 0 56 VBottom 2
WINDOW 3 24 86 VTop 2
SYMATTR InstName R20
SYMATTR Value 100
SYMBOL Opamps\\LT1007 -112 160 R0
SYMATTR InstName U1
SYMBOL Opamps\\LT1007 352 224 R0
SYMATTR InstName U2
SYMBOL Opamps\\LT1007 848 240 R0
SYMATTR InstName U4
SYMBOL Opamps\\LT1007 288 -176 R0
SYMATTR InstName U5
SYMBOL Opamps\\LT1007 288 672 R0
SYMATTR InstName U7
SYMBOL cap 368 16 R90
WINDOW 0 0 32 VBottom 2
WINDOW 3 32 32 VTop 2
SYMATTR InstName C3
SYMATTR Value 22n
TEXT -128 -520 Left 2 !.ac dec 1001 1 1meg
