Version 4
SHEET 1 1048 680
WIRE 832 0 832 -48
WIRE 832 0 736 0
WIRE 672 48 640 48
WIRE 832 48 832 0
WIRE 224 64 192 64
WIRE 432 64 304 64
WIRE 768 96 736 96
WIRE 96 192 48 192
WIRE 192 192 192 64
WIRE 192 192 176 192
WIRE 48 208 48 192
WIRE 432 224 432 64
WIRE 832 224 832 144
WIRE 832 224 432 224
WIRE 192 240 192 192
WIRE 256 240 192 240
WIRE 640 256 640 48
WIRE 640 256 320 256
WIRE 832 256 832 224
WIRE 880 256 832 256
WIRE 992 256 960 256
WIRE 256 272 240 272
WIRE 832 320 832 256
WIRE 832 320 736 320
WIRE 48 336 48 288
WIRE 640 368 640 256
WIRE 672 368 640 368
WIRE 832 368 832 320
WIRE 768 416 736 416
WIRE 832 496 832 464
FLAG 48 336 0
FLAG 240 272 0
FLAG 304 -80 0
FLAG 416 -80 0
FLAG 304 -160 VCC
IOPIN 304 -160 Out
FLAG 416 -160 VEE
IOPIN 416 -160 Out
FLAG 288 224 VCC
IOPIN 288 224 In
FLAG 288 288 VEE
IOPIN 288 288 In
FLAG 832 -48 VCC
IOPIN 832 -48 Out
FLAG 832 496 VEE
IOPIN 832 496 Out
FLAG 992 256 0
SYMBOL res 192 176 R90
WINDOW 0 0 56 VBottom 2
WINDOW 3 32 56 VTop 2
SYMATTR InstName R1
SYMATTR Value 1k
SYMBOL res 320 48 R90
WINDOW 0 0 56 VBottom 2
WINDOW 3 24 86 VTop 2
SYMATTR InstName R2
SYMATTR Value 1k
SYMBOL voltage 304 -176 R0
WINDOW 123 0 0 Left 2
WINDOW 39 0 0 Left 2
WINDOW 3 -7 59 Left 2
SYMATTR Value 15
SYMATTR InstName V1
SYMBOL voltage 416 -176 R0
WINDOW 123 0 0 Left 2
WINDOW 39 0 0 Left 2
WINDOW 3 -6 58 Left 2
SYMATTR Value -15
SYMATTR InstName V2
SYMBOL voltage 48 192 R0
WINDOW 0 36 57 Left 2
WINDOW 3 36 73 Left 2
WINDOW 123 5 122 Left 2
WINDOW 39 0 0 Left 2
SYMATTR InstName V0
SYMATTR Value SINE(0 100m 10k)
SYMBOL AutoGenerated\\LM358 288 192 R0
SYMATTR InstName U1
SYMBOL npn 768 48 R0
SYMATTR InstName Q1
SYMATTR Value 2N3055
SYMBOL res 976 240 R90
WINDOW 0 0 56 VBottom 2
WINDOW 3 24 86 VTop 2
SYMATTR InstName R3
SYMATTR Value 1k
SYMBOL npn 672 0 R0
SYMATTR InstName Q3
SYMATTR Value BC847B
SYMBOL pnp 672 416 M180
WINDOW 0 59 29 Left 2
WINDOW 3 54 47 Left 2
SYMATTR InstName Q4
SYMATTR Value BC857B
SYMBOL npn 768 368 R0
SYMATTR InstName Q2
SYMATTR Value 2N3055
TEXT 80 -104 Left 2 !.tran 0 10m 0 1u
TEXT 80 -80 Left 2 !;tf V(n002) V3
TEXT 80 -128 Left 2 !;ac dec 1001 10 10meg
TEXT 80 -168 Left 2 !;dc V0 -5 5 0.001
