Version 4
SHEET 1 880 680
WIRE 608 -144 592 -144
WIRE 624 -144 608 -144
WIRE 272 0 224 0
WIRE 400 0 336 0
WIRE 0 48 -96 48
WIRE 16 48 0 48
WIRE 112 48 96 48
WIRE 224 48 224 0
WIRE 224 48 112 48
WIRE -96 64 -96 48
WIRE 224 96 224 48
WIRE 288 96 224 96
WIRE 400 112 400 0
WIRE 400 112 352 112
WIRE 576 112 400 112
WIRE 0 128 0 48
WIRE 144 128 0 128
WIRE 256 128 224 128
WIRE 288 128 256 128
WIRE 112 144 112 48
WIRE 576 144 576 112
WIRE 608 144 576 144
WIRE 736 160 672 160
WIRE 576 176 560 176
WIRE 608 176 576 176
WIRE -96 192 -96 144
WIRE 112 240 112 224
WIRE 576 256 576 176
WIRE 608 256 576 256
WIRE 736 256 736 160
WIRE 736 256 688 256
WIRE 176 288 160 288
WIRE 304 288 176 288
WIRE 736 288 736 256
WIRE 736 288 384 288
WIRE 112 352 112 336
FLAG -96 192 0
FLAG 304 -80 0
FLAG 416 -80 0
FLAG 304 -160 VCC
IOPIN 304 -160 Out
FLAG 416 -160 VEE
IOPIN 416 -160 Out
FLAG 320 80 VCC
IOPIN 320 80 In
FLAG 320 144 VEE
IOPIN 320 144 In
FLAG 112 352 0
FLAG 640 192 VEE
IOPIN 640 192 In
FLAG 640 128 VCC
IOPIN 640 128 In
FLAG 512 -144 0
FLAG 704 -144 VCC
IOPIN 704 -144 Out
FLAG 608 -144 VCC/2
IOPIN 608 -144 Out
FLAG 480 176 VCC/2
IOPIN 480 176 In
FLAG 256 208 0
SYMBOL voltage 304 -176 R0
WINDOW 123 0 0 Left 2
WINDOW 39 0 0 Left 2
WINDOW 3 -7 59 Left 2
SYMATTR InstName V1
SYMATTR Value 5
SYMBOL voltage 416 -176 R0
WINDOW 123 0 0 Left 2
WINDOW 39 0 0 Left 2
WINDOW 3 -6 58 Left 2
SYMATTR InstName V2
SYMATTR Value -5
SYMBOL voltage -96 48 R0
WINDOW 0 36 57 Left 2
WINDOW 3 36 73 Left 2
WINDOW 39 0 0 Left 2
SYMATTR InstName Eg
SYMATTR Value 4
SYMATTR Value2 AC 1
SYMBOL AutoGenerated\\LM358 320 48 R0
SYMATTR InstName U1
SYMBOL npn 176 240 M0
SYMATTR InstName Q1
SYMATTR Value 2N2222
SYMBOL AutoGenerated\\LM358 640 96 R0
SYMATTR InstName U2
SYMBOL res 240 112 R90
WINDOW 0 0 56 VBottom 2
WINDOW 3 32 56 VTop 2
SYMATTR InstName R3
SYMATTR Value 51k
SYMBOL res 128 240 R180
WINDOW 0 36 76 Left 2
WINDOW 3 36 40 Left 2
SYMATTR InstName R4
SYMATTR Value 50k
SYMBOL cap 336 -16 R90
WINDOW 0 0 32 VBottom 2
WINDOW 3 32 32 VTop 2
SYMATTR InstName C1
SYMATTR Value 100p
SYMBOL res 400 272 R90
WINDOW 0 0 56 VBottom 2
WINDOW 3 32 56 VTop 2
SYMATTR InstName R2
SYMATTR Value 1k
SYMBOL res 704 240 R90
WINDOW 0 -1 36 VBottom 2
WINDOW 3 32 56 VTop 2
SYMATTR InstName R5
SYMATTR Value 100k
SYMBOL res 576 160 R90
WINDOW 0 0 56 VBottom 2
WINDOW 3 32 56 VTop 2
SYMATTR InstName R6
SYMATTR Value 51k
SYMBOL res 608 -160 R90
WINDOW 0 0 56 VBottom 2
WINDOW 3 32 56 VTop 2
SYMATTR InstName R7
SYMATTR Value 100k
SYMBOL res 720 -160 R90
WINDOW 0 0 56 VBottom 2
WINDOW 3 32 56 VTop 2
SYMATTR InstName R8
SYMATTR Value 100k
SYMBOL res 272 224 R180
WINDOW 0 36 76 Left 2
WINDOW 3 36 40 Left 2
SYMATTR InstName R9
SYMATTR Value 51k
SYMBOL res 112 32 R90
WINDOW 0 0 56 VBottom 2
WINDOW 3 32 56 VTop 2
SYMATTR InstName R10
SYMATTR Value 100k
TEXT 80 -104 Left 2 !.tran 0 10m 0 1u uic
TEXT 80 -80 Left 2 !;tf V(n002) V3
TEXT 80 -128 Left 2 !;ac dec 1001 10 10meg
